* NGSPICE file created from ALU.ext - technology: sky130A

* Black-box entry subcircuit for sky130_fd_sc_hd__decap_3 abstract view
.subckt sky130_fd_sc_hd__decap_3 VGND VNB VPB VPWR
.ends

* Black-box entry subcircuit for sky130_fd_sc_hd__nand3_1 abstract view
.subckt sky130_fd_sc_hd__nand3_1 A B C VGND VNB VPB VPWR Y
.ends

* Black-box entry subcircuit for sky130_fd_sc_hd__fill_1 abstract view
.subckt sky130_fd_sc_hd__fill_1 VGND VNB VPB VPWR
.ends

* Black-box entry subcircuit for sky130_fd_sc_hd__nand2_1 abstract view
.subckt sky130_fd_sc_hd__nand2_1 A B VGND VNB VPB VPWR Y
.ends

* Black-box entry subcircuit for sky130_fd_sc_hd__tapvpwrvgnd_1 abstract view
.subckt sky130_fd_sc_hd__tapvpwrvgnd_1 VGND VPWR
.ends

* Black-box entry subcircuit for sky130_fd_sc_hd__a21oi_1 abstract view
.subckt sky130_fd_sc_hd__a21oi_1 A1 A2 B1 VGND VNB VPB VPWR Y
.ends

* Black-box entry subcircuit for sky130_fd_sc_hd__decap_8 abstract view
.subckt sky130_fd_sc_hd__decap_8 VGND VNB VPB VPWR
.ends

* Black-box entry subcircuit for sky130_ef_sc_hd__decap_12 abstract view
.subckt sky130_ef_sc_hd__decap_12 VPWR VGND VPB VNB
.ends

* Black-box entry subcircuit for sky130_fd_sc_hd__fill_2 abstract view
.subckt sky130_fd_sc_hd__fill_2 VGND VNB VPB VPWR
.ends

* Black-box entry subcircuit for sky130_fd_sc_hd__inv_2 abstract view
.subckt sky130_fd_sc_hd__inv_2 A VGND VNB VPB VPWR Y
.ends

* Black-box entry subcircuit for sky130_fd_sc_hd__nand2_2 abstract view
.subckt sky130_fd_sc_hd__nand2_2 A B VGND VNB VPB VPWR Y
.ends

* Black-box entry subcircuit for sky130_fd_sc_hd__decap_4 abstract view
.subckt sky130_fd_sc_hd__decap_4 VGND VNB VPB VPWR
.ends

* Black-box entry subcircuit for sky130_fd_sc_hd__decap_6 abstract view
.subckt sky130_fd_sc_hd__decap_6 VGND VNB VPB VPWR
.ends

* Black-box entry subcircuit for sky130_fd_sc_hd__o21ai_1 abstract view
.subckt sky130_fd_sc_hd__o21ai_1 A1 A2 B1 VGND VNB VPB VPWR Y
.ends

* Black-box entry subcircuit for sky130_fd_sc_hd__dfrtp_1 abstract view
.subckt sky130_fd_sc_hd__dfrtp_1 CLK D RESET_B VGND VNB VPB VPWR Q
.ends

* Black-box entry subcircuit for sky130_fd_sc_hd__nand3_2 abstract view
.subckt sky130_fd_sc_hd__nand3_2 A B C VGND VNB VPB VPWR Y
.ends

* Black-box entry subcircuit for sky130_fd_sc_hd__dfrtp_4 abstract view
.subckt sky130_fd_sc_hd__dfrtp_4 CLK D RESET_B VGND VNB VPB VPWR Q
.ends

* Black-box entry subcircuit for sky130_fd_sc_hd__clkbuf_2 abstract view
.subckt sky130_fd_sc_hd__clkbuf_2 A VGND VNB VPB VPWR X
.ends

* Black-box entry subcircuit for sky130_fd_sc_hd__buf_2 abstract view
.subckt sky130_fd_sc_hd__buf_2 A VGND VNB VPB VPWR X
.ends

* Black-box entry subcircuit for sky130_fd_sc_hd__clkbuf_4 abstract view
.subckt sky130_fd_sc_hd__clkbuf_4 A VGND VNB VPB VPWR X
.ends

* Black-box entry subcircuit for sky130_fd_sc_hd__buf_4 abstract view
.subckt sky130_fd_sc_hd__buf_4 A VGND VNB VPB VPWR X
.ends

* Black-box entry subcircuit for sky130_fd_sc_hd__a21oi_2 abstract view
.subckt sky130_fd_sc_hd__a21oi_2 A1 A2 B1 VGND VNB VPB VPWR Y
.ends

* Black-box entry subcircuit for sky130_fd_sc_hd__and3_1 abstract view
.subckt sky130_fd_sc_hd__and3_1 A B C VGND VNB VPB VPWR X
.ends

* Black-box entry subcircuit for sky130_fd_sc_hd__nor2_1 abstract view
.subckt sky130_fd_sc_hd__nor2_1 A B VGND VNB VPB VPWR Y
.ends

* Black-box entry subcircuit for sky130_fd_sc_hd__nand3b_1 abstract view
.subckt sky130_fd_sc_hd__nand3b_1 A_N B C VGND VNB VPB VPWR Y
.ends

* Black-box entry subcircuit for sky130_fd_sc_hd__o21a_1 abstract view
.subckt sky130_fd_sc_hd__o21a_1 A1 A2 B1 VGND VNB VPB VPWR X
.ends

* Black-box entry subcircuit for sky130_fd_sc_hd__or2_1 abstract view
.subckt sky130_fd_sc_hd__or2_1 A B VGND VNB VPB VPWR X
.ends

* Black-box entry subcircuit for sky130_fd_sc_hd__mux2_1 abstract view
.subckt sky130_fd_sc_hd__mux2_1 A0 A1 S VGND VNB VPB VPWR X
.ends

* Black-box entry subcircuit for sky130_fd_sc_hd__clkinvlp_2 abstract view
.subckt sky130_fd_sc_hd__clkinvlp_2 A VGND VNB VPB VPWR Y
.ends

* Black-box entry subcircuit for sky130_fd_sc_hd__a21boi_1 abstract view
.subckt sky130_fd_sc_hd__a21boi_1 A1 A2 B1_N VGND VNB VPB VPWR Y
.ends

* Black-box entry subcircuit for sky130_fd_sc_hd__clkbuf_1 abstract view
.subckt sky130_fd_sc_hd__clkbuf_1 A VGND VNB VPB VPWR X
.ends

* Black-box entry subcircuit for sky130_fd_sc_hd__nand2b_1 abstract view
.subckt sky130_fd_sc_hd__nand2b_1 A_N B VGND VNB VPB VPWR Y
.ends

* Black-box entry subcircuit for sky130_fd_sc_hd__a221o_1 abstract view
.subckt sky130_fd_sc_hd__a221o_1 A1 A2 B1 B2 C1 VGND VNB VPB VPWR X
.ends

* Black-box entry subcircuit for sky130_fd_sc_hd__dlygate4sd3_1 abstract view
.subckt sky130_fd_sc_hd__dlygate4sd3_1 A VGND VNB VPB VPWR X
.ends

* Black-box entry subcircuit for sky130_fd_sc_hd__nor2_4 abstract view
.subckt sky130_fd_sc_hd__nor2_4 A B VGND VNB VPB VPWR Y
.ends

* Black-box entry subcircuit for sky130_fd_sc_hd__buf_6 abstract view
.subckt sky130_fd_sc_hd__buf_6 A VGND VNB VPB VPWR X
.ends

* Black-box entry subcircuit for sky130_fd_sc_hd__a21o_1 abstract view
.subckt sky130_fd_sc_hd__a21o_1 A1 A2 B1 VGND VNB VPB VPWR X
.ends

* Black-box entry subcircuit for sky130_fd_sc_hd__diode_2 abstract view
.subckt sky130_fd_sc_hd__diode_2 DIODE VGND VNB VPB VPWR
.ends

* Black-box entry subcircuit for sky130_fd_sc_hd__dfrtp_2 abstract view
.subckt sky130_fd_sc_hd__dfrtp_2 CLK D RESET_B VGND VNB VPB VPWR Q
.ends

* Black-box entry subcircuit for sky130_fd_sc_hd__or4_1 abstract view
.subckt sky130_fd_sc_hd__or4_1 A B C D VGND VNB VPB VPWR X
.ends

* Black-box entry subcircuit for sky130_fd_sc_hd__nor3_4 abstract view
.subckt sky130_fd_sc_hd__nor3_4 A B C VGND VNB VPB VPWR Y
.ends

* Black-box entry subcircuit for sky130_fd_sc_hd__xor2_1 abstract view
.subckt sky130_fd_sc_hd__xor2_1 A B VGND VNB VPB VPWR X
.ends

* Black-box entry subcircuit for sky130_fd_sc_hd__xor2_2 abstract view
.subckt sky130_fd_sc_hd__xor2_2 A B VGND VNB VPB VPWR X
.ends

* Black-box entry subcircuit for sky130_fd_sc_hd__a31oi_1 abstract view
.subckt sky130_fd_sc_hd__a31oi_1 A1 A2 A3 B1 VGND VNB VPB VPWR Y
.ends

* Black-box entry subcircuit for sky130_fd_sc_hd__xnor2_1 abstract view
.subckt sky130_fd_sc_hd__xnor2_1 A B VGND VNB VPB VPWR Y
.ends

* Black-box entry subcircuit for sky130_fd_sc_hd__o21ai_2 abstract view
.subckt sky130_fd_sc_hd__o21ai_2 A1 A2 B1 VGND VNB VPB VPWR Y
.ends

* Black-box entry subcircuit for sky130_fd_sc_hd__and2_1 abstract view
.subckt sky130_fd_sc_hd__and2_1 A B VGND VNB VPB VPWR X
.ends

* Black-box entry subcircuit for sky130_fd_sc_hd__a22o_1 abstract view
.subckt sky130_fd_sc_hd__a22o_1 A1 A2 B1 B2 VGND VNB VPB VPWR X
.ends

* Black-box entry subcircuit for sky130_fd_sc_hd__or2b_1 abstract view
.subckt sky130_fd_sc_hd__or2b_1 A B_N VGND VNB VPB VPWR X
.ends

* Black-box entry subcircuit for sky130_fd_sc_hd__nor2b_1 abstract view
.subckt sky130_fd_sc_hd__nor2b_1 A B_N VGND VNB VPB VPWR Y
.ends

* Black-box entry subcircuit for sky130_fd_sc_hd__nand2_4 abstract view
.subckt sky130_fd_sc_hd__nand2_4 A B VGND VNB VPB VPWR Y
.ends

* Black-box entry subcircuit for sky130_fd_sc_hd__o221a_1 abstract view
.subckt sky130_fd_sc_hd__o221a_1 A1 A2 B1 B2 C1 VGND VNB VPB VPWR X
.ends

* Black-box entry subcircuit for sky130_fd_sc_hd__or4_2 abstract view
.subckt sky130_fd_sc_hd__or4_2 A B C D VGND VNB VPB VPWR X
.ends

* Black-box entry subcircuit for sky130_fd_sc_hd__o211ai_1 abstract view
.subckt sky130_fd_sc_hd__o211ai_1 A1 A2 B1 C1 VGND VNB VPB VPWR Y
.ends

* Black-box entry subcircuit for sky130_fd_sc_hd__nor3_1 abstract view
.subckt sky130_fd_sc_hd__nor3_1 A B C VGND VNB VPB VPWR Y
.ends

* Black-box entry subcircuit for sky130_fd_sc_hd__a311o_1 abstract view
.subckt sky130_fd_sc_hd__a311o_1 A1 A2 A3 B1 C1 VGND VNB VPB VPWR X
.ends

* Black-box entry subcircuit for sky130_fd_sc_hd__a31oi_2 abstract view
.subckt sky130_fd_sc_hd__a31oi_2 A1 A2 A3 B1 VGND VNB VPB VPWR Y
.ends

* Black-box entry subcircuit for sky130_fd_sc_hd__o22a_1 abstract view
.subckt sky130_fd_sc_hd__o22a_1 A1 A2 B1 B2 VGND VNB VPB VPWR X
.ends

* Black-box entry subcircuit for sky130_fd_sc_hd__xnor2_2 abstract view
.subckt sky130_fd_sc_hd__xnor2_2 A B VGND VNB VPB VPWR Y
.ends

* Black-box entry subcircuit for sky130_fd_sc_hd__a211oi_1 abstract view
.subckt sky130_fd_sc_hd__a211oi_1 A1 A2 B1 C1 VGND VNB VPB VPWR Y
.ends

* Black-box entry subcircuit for sky130_fd_sc_hd__o21ba_1 abstract view
.subckt sky130_fd_sc_hd__o21ba_1 A1 A2 B1_N VGND VNB VPB VPWR X
.ends

* Black-box entry subcircuit for sky130_fd_sc_hd__or3_1 abstract view
.subckt sky130_fd_sc_hd__or3_1 A B C VGND VNB VPB VPWR X
.ends

* Black-box entry subcircuit for sky130_fd_sc_hd__a21bo_1 abstract view
.subckt sky130_fd_sc_hd__a21bo_1 A1 A2 B1_N VGND VNB VPB VPWR X
.ends

* Black-box entry subcircuit for sky130_fd_sc_hd__clkbuf_8 abstract view
.subckt sky130_fd_sc_hd__clkbuf_8 A VGND VNB VPB VPWR X
.ends

* Black-box entry subcircuit for sky130_fd_sc_hd__nor2_2 abstract view
.subckt sky130_fd_sc_hd__nor2_2 A B VGND VNB VPB VPWR Y
.ends

* Black-box entry subcircuit for sky130_fd_sc_hd__bufinv_16 abstract view
.subckt sky130_fd_sc_hd__bufinv_16 A VGND VNB VPB VPWR Y
.ends

* Black-box entry subcircuit for sky130_fd_sc_hd__dlymetal6s2s_1 abstract view
.subckt sky130_fd_sc_hd__dlymetal6s2s_1 A VGND VNB VPB VPWR X
.ends

* Black-box entry subcircuit for sky130_fd_sc_hd__a41o_1 abstract view
.subckt sky130_fd_sc_hd__a41o_1 A1 A2 A3 A4 B1 VGND VNB VPB VPWR X
.ends

* Black-box entry subcircuit for sky130_fd_sc_hd__inv_16 abstract view
.subckt sky130_fd_sc_hd__inv_16 A VGND VNB VPB VPWR Y
.ends

* Black-box entry subcircuit for sky130_fd_sc_hd__nor3_2 abstract view
.subckt sky130_fd_sc_hd__nor3_2 A B C VGND VNB VPB VPWR Y
.ends

* Black-box entry subcircuit for sky130_fd_sc_hd__a31o_1 abstract view
.subckt sky130_fd_sc_hd__a31o_1 A1 A2 A3 B1 VGND VNB VPB VPWR X
.ends

* Black-box entry subcircuit for sky130_fd_sc_hd__nand3b_2 abstract view
.subckt sky130_fd_sc_hd__nand3b_2 A_N B C VGND VNB VPB VPWR Y
.ends

* Black-box entry subcircuit for sky130_fd_sc_hd__inv_6 abstract view
.subckt sky130_fd_sc_hd__inv_6 A VGND VNB VPB VPWR Y
.ends

* Black-box entry subcircuit for sky130_fd_sc_hd__o21bai_1 abstract view
.subckt sky130_fd_sc_hd__o21bai_1 A1 A2 B1_N VGND VNB VPB VPWR Y
.ends

* Black-box entry subcircuit for sky130_fd_sc_hd__o2111a_1 abstract view
.subckt sky130_fd_sc_hd__o2111a_1 A1 A2 B1 C1 D1 VGND VNB VPB VPWR X
.ends

* Black-box entry subcircuit for sky130_fd_sc_hd__o211a_1 abstract view
.subckt sky130_fd_sc_hd__o211a_1 A1 A2 B1 C1 VGND VNB VPB VPWR X
.ends

* Black-box entry subcircuit for sky130_fd_sc_hd__and3_2 abstract view
.subckt sky130_fd_sc_hd__and3_2 A B C VGND VNB VPB VPWR X
.ends

* Black-box entry subcircuit for sky130_fd_sc_hd__clkbuf_16 abstract view
.subckt sky130_fd_sc_hd__clkbuf_16 A VGND VNB VPB VPWR X
.ends

* Black-box entry subcircuit for sky130_fd_sc_hd__inv_12 abstract view
.subckt sky130_fd_sc_hd__inv_12 A VGND VNB VPB VPWR Y
.ends

* Black-box entry subcircuit for sky130_fd_sc_hd__o32a_1 abstract view
.subckt sky130_fd_sc_hd__o32a_1 A1 A2 A3 B1 B2 VGND VNB VPB VPWR X
.ends

* Black-box entry subcircuit for sky130_fd_sc_hd__or3b_1 abstract view
.subckt sky130_fd_sc_hd__or3b_1 A B C_N VGND VNB VPB VPWR X
.ends

* Black-box entry subcircuit for sky130_fd_sc_hd__and2b_1 abstract view
.subckt sky130_fd_sc_hd__and2b_1 A_N B VGND VNB VPB VPWR X
.ends

* Black-box entry subcircuit for sky130_fd_sc_hd__a211o_1 abstract view
.subckt sky130_fd_sc_hd__a211o_1 A1 A2 B1 C1 VGND VNB VPB VPWR X
.ends

* Black-box entry subcircuit for sky130_fd_sc_hd__clkinv_16 abstract view
.subckt sky130_fd_sc_hd__clkinv_16 A VGND VNB VPB VPWR Y
.ends

* Black-box entry subcircuit for sky130_fd_sc_hd__o31ai_1 abstract view
.subckt sky130_fd_sc_hd__o31ai_1 A1 A2 A3 B1 VGND VNB VPB VPWR Y
.ends

* Black-box entry subcircuit for sky130_fd_sc_hd__inv_4 abstract view
.subckt sky130_fd_sc_hd__inv_4 A VGND VNB VPB VPWR Y
.ends

* Black-box entry subcircuit for sky130_fd_sc_hd__a221oi_1 abstract view
.subckt sky130_fd_sc_hd__a221oi_1 A1 A2 B1 B2 C1 VGND VNB VPB VPWR Y
.ends

* Black-box entry subcircuit for sky130_fd_sc_hd__nand3_4 abstract view
.subckt sky130_fd_sc_hd__nand3_4 A B C VGND VNB VPB VPWR Y
.ends

* Black-box entry subcircuit for sky130_fd_sc_hd__clkinv_8 abstract view
.subckt sky130_fd_sc_hd__clkinv_8 A VGND VNB VPB VPWR Y
.ends

* Black-box entry subcircuit for sky130_fd_sc_hd__o31a_1 abstract view
.subckt sky130_fd_sc_hd__o31a_1 A1 A2 A3 B1 VGND VNB VPB VPWR X
.ends

* Black-box entry subcircuit for sky130_fd_sc_hd__clkinv_4 abstract view
.subckt sky130_fd_sc_hd__clkinv_4 A VGND VNB VPB VPWR Y
.ends

* Black-box entry subcircuit for sky130_fd_sc_hd__or2_2 abstract view
.subckt sky130_fd_sc_hd__or2_2 A B VGND VNB VPB VPWR X
.ends

* Black-box entry subcircuit for sky130_fd_sc_hd__clkinv_2 abstract view
.subckt sky130_fd_sc_hd__clkinv_2 A VGND VNB VPB VPWR Y
.ends

* Black-box entry subcircuit for sky130_fd_sc_hd__and4b_1 abstract view
.subckt sky130_fd_sc_hd__and4b_1 A_N B C D VGND VNB VPB VPWR X
.ends

* Black-box entry subcircuit for sky130_fd_sc_hd__and4_1 abstract view
.subckt sky130_fd_sc_hd__and4_1 A B C D VGND VNB VPB VPWR X
.ends

* Black-box entry subcircuit for sky130_fd_sc_hd__buf_1 abstract view
.subckt sky130_fd_sc_hd__buf_1 A VGND VNB VPB VPWR X
.ends

* Black-box entry subcircuit for sky130_fd_sc_hd__and3b_1 abstract view
.subckt sky130_fd_sc_hd__and3b_1 A_N B C VGND VNB VPB VPWR X
.ends

* Black-box entry subcircuit for sky130_fd_sc_hd__o211ai_2 abstract view
.subckt sky130_fd_sc_hd__o211ai_2 A1 A2 B1 C1 VGND VNB VPB VPWR Y
.ends

* Black-box entry subcircuit for sky130_fd_sc_hd__a311oi_1 abstract view
.subckt sky130_fd_sc_hd__a311oi_1 A1 A2 A3 B1 C1 VGND VNB VPB VPWR Y
.ends

* Black-box entry subcircuit for sky130_fd_sc_hd__a221oi_2 abstract view
.subckt sky130_fd_sc_hd__a221oi_2 A1 A2 B1 B2 C1 VGND VNB VPB VPWR Y
.ends

* Black-box entry subcircuit for sky130_fd_sc_hd__o2bb2a_1 abstract view
.subckt sky130_fd_sc_hd__o2bb2a_1 A1_N A2_N B1 B2 VGND VNB VPB VPWR X
.ends

* Black-box entry subcircuit for sky130_fd_sc_hd__o2111ai_1 abstract view
.subckt sky130_fd_sc_hd__o2111ai_1 A1 A2 B1 C1 D1 VGND VNB VPB VPWR Y
.ends

* Black-box entry subcircuit for sky130_fd_sc_hd__a21boi_2 abstract view
.subckt sky130_fd_sc_hd__a21boi_2 A1 A2 B1_N VGND VNB VPB VPWR Y
.ends

* Black-box entry subcircuit for sky130_fd_sc_hd__o22ai_1 abstract view
.subckt sky130_fd_sc_hd__o22ai_1 A1 A2 B1 B2 VGND VNB VPB VPWR Y
.ends

* Black-box entry subcircuit for sky130_fd_sc_hd__a2111o_1 abstract view
.subckt sky130_fd_sc_hd__a2111o_1 A1 A2 B1 C1 D1 VGND VNB VPB VPWR X
.ends

* Black-box entry subcircuit for sky130_fd_sc_hd__a32o_1 abstract view
.subckt sky130_fd_sc_hd__a32o_1 A1 A2 A3 B1 B2 VGND VNB VPB VPWR X
.ends

* Black-box entry subcircuit for sky130_fd_sc_hd__or4b_1 abstract view
.subckt sky130_fd_sc_hd__or4b_1 A B C D_N VGND VNB VPB VPWR X
.ends

* Black-box entry subcircuit for sky130_fd_sc_hd__o311ai_2 abstract view
.subckt sky130_fd_sc_hd__o311ai_2 A1 A2 A3 B1 C1 VGND VNB VPB VPWR Y
.ends

* Black-box entry subcircuit for sky130_fd_sc_hd__o211ai_4 abstract view
.subckt sky130_fd_sc_hd__o211ai_4 A1 A2 B1 C1 VGND VNB VPB VPWR Y
.ends

* Black-box entry subcircuit for sky130_fd_sc_hd__a2bb2oi_1 abstract view
.subckt sky130_fd_sc_hd__a2bb2oi_1 A1_N A2_N B1 B2 VGND VNB VPB VPWR Y
.ends

.subckt ALU VGND VPWR clk i_a[0] i_a[10] i_a[11] i_a[12] i_a[13] i_a[14] i_a[15] i_a[16]
+ i_a[17] i_a[18] i_a[19] i_a[1] i_a[20] i_a[21] i_a[22] i_a[23] i_a[24] i_a[25] i_a[26]
+ i_a[27] i_a[28] i_a[29] i_a[2] i_a[30] i_a[31] i_a[3] i_a[4] i_a[5] i_a[6] i_a[7]
+ i_a[8] i_a[9] i_b[0] i_b[10] i_b[11] i_b[12] i_b[13] i_b[14] i_b[15] i_b[16] i_b[17]
+ i_b[18] i_b[19] i_b[1] i_b[20] i_b[21] i_b[22] i_b[23] i_b[24] i_b[25] i_b[26] i_b[27]
+ i_b[28] i_b[29] i_b[2] i_b[30] i_b[31] i_b[3] i_b[4] i_b[5] i_b[6] i_b[7] i_b[8]
+ i_b[9] i_vld o_res[0] o_res[10] o_res[11] o_res[12] o_res[13] o_res[14] o_res[15]
+ o_res[16] o_res[17] o_res[18] o_res[19] o_res[1] o_res[20] o_res[21] o_res[22] o_res[23]
+ o_res[24] o_res[25] o_res[26] o_res[27] o_res[28] o_res[29] o_res[2] o_res[30] o_res[31]
+ o_res[3] o_res[4] o_res[5] o_res[6] o_res[7] o_res[8] o_res[9] o_res_vld opcode
+ overflow rst
XFILLER_67_520 VGND VGND VPWR VPWR sky130_fd_sc_hd__decap_3
X_09671_ _01966_ _01795_ _01969_ VGND VGND VPWR VPWR _01970_ sky130_fd_sc_hd__nand3_1
XFILLER_67_597 VGND VGND VPWR VPWR sky130_fd_sc_hd__fill_1
X_08622_ _00918_ _00920_ VGND VGND VPWR VPWR _00921_ sky130_fd_sc_hd__nand2_1
XTAP_TAPCELL_ROW_53_916 VGND VPWR sky130_fd_sc_hd__tapvpwrvgnd_1
X_08553_ _00846_ _00849_ _00717_ VGND VGND VPWR VPWR _00852_ sky130_fd_sc_hd__nand3_1
XFILLER_23_601 VGND VGND VPWR VPWR sky130_fd_sc_hd__decap_3
X_08484_ _00758_ _00761_ _00756_ VGND VGND VPWR VPWR _00783_ sky130_fd_sc_hd__a21oi_1
XFILLER_52_29 VGND VGND VPWR VPWR sky130_fd_sc_hd__decap_3
XFILLER_50_442 VGND VGND VPWR VPWR sky130_fd_sc_hd__decap_8
XFILLER_50_475 VGND VGND VPWR VPWR sky130_fd_sc_hd__fill_1
XFILLER_50_453 VGND VGND VPWR VPWR sky130_fd_sc_hd__decap_3
XFILLER_22_144 VGND VGND VPWR VPWR sky130_fd_sc_hd__fill_1
XFILLER_23_689 VPWR VGND VPWR VGND sky130_ef_sc_hd__decap_12
XTAP_TAPCELL_ROW_33_673 VGND VPWR sky130_fd_sc_hd__tapvpwrvgnd_1
X_09105_ _01397_ _01394_ VGND VGND VPWR VPWR _01404_ sky130_fd_sc_hd__nand2_1
X_09036_ _01327_ _01315_ _01317_ VGND VGND VPWR VPWR _01335_ sky130_fd_sc_hd__nand3_1
XFILLER_104_400 VGND VGND VPWR VPWR sky130_fd_sc_hd__decap_8
XFILLER_117_66 VGND VGND VPWR VPWR sky130_fd_sc_hd__fill_1
XFILLER_117_55 VGND VGND VPWR VPWR sky130_fd_sc_hd__fill_1
X_09938_ _02220_ _02234_ _02236_ VGND VGND VPWR VPWR _02237_ sky130_fd_sc_hd__nand3_1
XFILLER_89_177 VGND VGND VPWR VPWR sky130_fd_sc_hd__fill_2
XFILLER_77_328 VGND VGND VPWR VPWR sky130_fd_sc_hd__fill_2
XTAP_TAPCELL_ROW_5_321 VGND VPWR sky130_fd_sc_hd__tapvpwrvgnd_1
XFILLER_92_309 VGND VGND VPWR VPWR sky130_fd_sc_hd__decap_8
X_09869_ _02167_ VGND VGND VPWR VPWR _02168_ sky130_fd_sc_hd__inv_2
X_12880_ _05151_ _05178_ VGND VGND VPWR VPWR _05179_ sky130_fd_sc_hd__nand2_1
X_11900_ _04197_ VGND VGND VPWR VPWR _04199_ sky130_fd_sc_hd__inv_2
X_11831_ _04129_ _03899_ _03901_ VGND VGND VPWR VPWR _04130_ sky130_fd_sc_hd__nand3_1
X_14550_ _06788_ _06789_ VGND VGND VPWR VPWR _06790_ sky130_fd_sc_hd__nand2_2
XFILLER_60_206 VGND VGND VPWR VPWR sky130_fd_sc_hd__decap_4
X_13501_ _05795_ _05799_ VGND VGND VPWR VPWR _05800_ sky130_fd_sc_hd__nand2_1
X_11762_ net184 net147 VGND VGND VPWR VPWR _04061_ sky130_fd_sc_hd__nand2_1
XFILLER_14_634 VGND VGND VPWR VPWR sky130_fd_sc_hd__decap_6
XFILLER_14_645 VGND VGND VPWR VPWR sky130_fd_sc_hd__decap_4
XFILLER_26_96 VGND VGND VPWR VPWR sky130_fd_sc_hd__decap_8
X_14481_ net217 _06558_ _06720_ VGND VGND VPWR VPWR _06721_ sky130_fd_sc_hd__o21ai_1
X_11693_ _03990_ _03991_ VGND VGND VPWR VPWR _03992_ sky130_fd_sc_hd__nand2_1
X_10713_ net195 net147 VGND VGND VPWR VPWR _03012_ sky130_fd_sc_hd__nand2_1
XFILLER_13_166 VGND VGND VPWR VPWR sky130_fd_sc_hd__fill_2
X_10644_ _02942_ VGND VGND VPWR VPWR _02943_ sky130_fd_sc_hd__inv_2
X_13432_ _05646_ _05647_ _05730_ VGND VGND VPWR VPWR _05731_ sky130_fd_sc_hd__nand3_1
XFILLER_13_188 VGND VGND VPWR VPWR sky130_fd_sc_hd__decap_8
X_10575_ _02870_ _02873_ VGND VGND VPWR VPWR _02874_ sky130_fd_sc_hd__nand2_1
X_16151_ clknet_leaf_16_clk _00003_ _00399_ VGND VGND VPWR VPWR net71 sky130_fd_sc_hd__dfrtp_1
X_13363_ _05646_ _05647_ VGND VGND VPWR VPWR _05662_ sky130_fd_sc_hd__nand2_1
X_15102_ _07344_ _07351_ multiplier_inst.sign_res VGND VGND VPWR VPWR _07352_ sky130_fd_sc_hd__o21ai_1
X_12314_ _04594_ _04612_ VGND VGND VPWR VPWR _04613_ sky130_fd_sc_hd__nand2_1
X_16082_ clknet_leaf_20_clk multiplier_inst.man_final\[8\] _00330_ VGND VGND VPWR
+ VPWR multiplier_inst.man_final_r\[8\] sky130_fd_sc_hd__dfrtp_1
XFILLER_54_9 VGND VGND VPWR VPWR sky130_fd_sc_hd__decap_3
X_13294_ _05489_ _05449_ VGND VGND VPWR VPWR _05593_ sky130_fd_sc_hd__nand2_1
X_15033_ _07244_ _07248_ VGND VGND VPWR VPWR _07279_ sky130_fd_sc_hd__nand2_1
X_12245_ _04542_ _03879_ _04543_ VGND VGND VPWR VPWR _04544_ sky130_fd_sc_hd__a21oi_1
X_12176_ _04437_ _04474_ VGND VGND VPWR VPWR _04475_ sky130_fd_sc_hd__nand2_1
XFILLER_68_306 VGND VGND VPWR VPWR sky130_fd_sc_hd__fill_2
X_11127_ _03423_ _03421_ _03077_ VGND VGND VPWR VPWR _03426_ sky130_fd_sc_hd__nand3_2
XFILLER_49_542 VGND VGND VPWR VPWR sky130_fd_sc_hd__fill_1
XTAP_TAPCELL_ROW_108_1605 VGND VPWR sky130_fd_sc_hd__tapvpwrvgnd_1
X_15935_ clknet_leaf_17_clk adder_inst.sum_raw\[10\] _00183_ VGND VGND VPWR VPWR adder_inst.sum_raw_r\[10\]
+ sky130_fd_sc_hd__dfrtp_4
XFILLER_76_350 VPWR VGND VPWR VGND sky130_ef_sc_hd__decap_12
XFILLER_49_564 VGND VGND VPWR VPWR sky130_fd_sc_hd__decap_3
XFILLER_49_553 VGND VGND VPWR VPWR sky130_fd_sc_hd__fill_1
X_11058_ _03355_ _03356_ VGND VGND VPWR VPWR _03357_ sky130_fd_sc_hd__nand2_1
X_10009_ _02100_ _02090_ VGND VGND VPWR VPWR _02308_ sky130_fd_sc_hd__nand2_1
X_15866_ clknet_leaf_3_clk net29 _00114_ VGND VGND VPWR VPWR adder_inst.i_a\[6\] sky130_fd_sc_hd__dfrtp_1
XFILLER_76_383 VGND VGND VPWR VPWR sky130_fd_sc_hd__decap_8
XFILLER_76_372 VGND VGND VPWR VPWR sky130_fd_sc_hd__fill_1
X_14817_ _07053_ _07042_ VGND VGND VPWR VPWR _07054_ sky130_fd_sc_hd__nand2_1
XFILLER_64_545 VPWR VGND VPWR VGND sky130_ef_sc_hd__decap_12
XFILLER_36_236 VPWR VGND VPWR VGND sky130_ef_sc_hd__decap_12
X_15797_ net284 VGND VGND VPWR VPWR _00359_ sky130_fd_sc_hd__inv_2
XFILLER_51_206 VGND VGND VPWR VPWR sky130_fd_sc_hd__decap_6
X_14748_ _06987_ _06979_ VGND VGND VPWR VPWR _06988_ sky130_fd_sc_hd__nand2_1
XTAP_TAPCELL_ROW_67_1092 VGND VPWR sky130_fd_sc_hd__tapvpwrvgnd_1
X_14679_ _06915_ _06918_ _06714_ VGND VGND VPWR VPWR _06919_ sky130_fd_sc_hd__nand3_1
XFILLER_32_475 VGND VGND VPWR VPWR sky130_fd_sc_hd__fill_1
XFILLER_9_660 VPWR VGND VPWR VGND sky130_ef_sc_hd__decap_12
XTAP_TAPCELL_ROW_30_632 VGND VPWR sky130_fd_sc_hd__tapvpwrvgnd_1
XTAP_TAPCELL_ROW_119_1756 VGND VPWR sky130_fd_sc_hd__tapvpwrvgnd_1
XTAP_TAPCELL_ROW_119_1745 VGND VPWR sky130_fd_sc_hd__tapvpwrvgnd_1
XFILLER_113_274 VGND VGND VPWR VPWR sky130_fd_sc_hd__decap_6
Xfanout105 adder_inst.i_vld_r2 VGND VGND VPWR VPWR net105 sky130_fd_sc_hd__clkbuf_2
Xfanout127 adder_inst.man_b_r\[16\] VGND VGND VPWR VPWR net127 sky130_fd_sc_hd__buf_2
XFILLER_59_306 VGND VGND VPWR VPWR sky130_fd_sc_hd__decap_4
Xfanout116 adder_inst.man_b_r\[20\] VGND VGND VPWR VPWR net116 sky130_fd_sc_hd__clkbuf_4
Xfanout138 net139 VGND VGND VPWR VPWR net138 sky130_fd_sc_hd__buf_4
XFILLER_113_285 VGND VGND VPWR VPWR sky130_fd_sc_hd__decap_4
X_07984_ net200 net155 VGND VGND VPWR VPWR _07755_ sky130_fd_sc_hd__nand2_1
Xfanout149 net150 VGND VGND VPWR VPWR net149 sky130_fd_sc_hd__clkbuf_4
X_09723_ _02010_ _02021_ VGND VGND VPWR VPWR _02022_ sky130_fd_sc_hd__nand2_1
XFILLER_67_361 VPWR VGND VPWR VGND sky130_ef_sc_hd__decap_12
X_09654_ _01886_ _01739_ VGND VGND VPWR VPWR _01953_ sky130_fd_sc_hd__nand2_1
XFILLER_67_383 VGND VGND VPWR VPWR sky130_fd_sc_hd__decap_8
XFILLER_55_545 VPWR VGND VPWR VGND sky130_ef_sc_hd__decap_12
XFILLER_43_707 VGND VGND VPWR VPWR sky130_fd_sc_hd__decap_3
X_08605_ _00843_ _00899_ _00903_ VGND VGND VPWR VPWR _00904_ sky130_fd_sc_hd__a21oi_2
XTAP_TAPCELL_ROW_38_732 VGND VPWR sky130_fd_sc_hd__tapvpwrvgnd_1
XFILLER_70_526 VGND VGND VPWR VPWR sky130_fd_sc_hd__fill_1
XFILLER_70_504 VGND VGND VPWR VPWR sky130_fd_sc_hd__fill_1
X_09585_ _01578_ _01563_ _01708_ VGND VGND VPWR VPWR _01884_ sky130_fd_sc_hd__nand3_1
XFILLER_55_578 VGND VGND VPWR VPWR sky130_fd_sc_hd__decap_4
XFILLER_70_548 VGND VGND VPWR VPWR sky130_fd_sc_hd__decap_8
X_08536_ _07816_ _07819_ _00456_ VGND VGND VPWR VPWR _00835_ sky130_fd_sc_hd__nand3_1
X_08467_ _00745_ _00753_ VGND VGND VPWR VPWR _00766_ sky130_fd_sc_hd__nand2_1
X_08398_ _00637_ _00631_ VGND VGND VPWR VPWR _00697_ sky130_fd_sc_hd__nand2_1
XFILLER_50_261 VGND VGND VPWR VPWR sky130_fd_sc_hd__fill_1
XFILLER_23_486 VGND VGND VPWR VPWR sky130_fd_sc_hd__fill_1
X_10360_ _02646_ _02647_ VGND VGND VPWR VPWR _02659_ sky130_fd_sc_hd__nand2_1
XTAP_TAPCELL_ROW_94_1439 VGND VPWR sky130_fd_sc_hd__tapvpwrvgnd_1
XTAP_TAPCELL_ROW_94_1428 VGND VPWR sky130_fd_sc_hd__tapvpwrvgnd_1
X_10291_ _02588_ _02589_ VGND VGND VPWR VPWR _02590_ sky130_fd_sc_hd__nand2_1
X_09019_ _01315_ _01317_ VGND VGND VPWR VPWR _01318_ sky130_fd_sc_hd__nand2_1
XFILLER_2_324 VGND VGND VPWR VPWR sky130_fd_sc_hd__decap_8
X_12030_ _04328_ _04269_ VGND VGND VPWR VPWR _04329_ sky130_fd_sc_hd__nand2_1
XFILLER_78_637 VGND VGND VPWR VPWR sky130_fd_sc_hd__decap_6
XFILLER_78_626 VGND VGND VPWR VPWR sky130_fd_sc_hd__decap_4
XFILLER_78_604 VGND VGND VPWR VPWR sky130_fd_sc_hd__fill_2
X_13981_ _06192_ _06193_ _06248_ VGND VGND VPWR VPWR _06249_ sky130_fd_sc_hd__and3_1
X_15720_ net298 VGND VGND VPWR VPWR _00282_ sky130_fd_sc_hd__inv_2
XFILLER_58_383 VGND VGND VPWR VPWR sky130_fd_sc_hd__fill_1
X_12932_ _05229_ _05225_ VGND VGND VPWR VPWR _05231_ sky130_fd_sc_hd__nand2_1
XFILLER_37_51 VGND VGND VPWR VPWR sky130_fd_sc_hd__fill_2
XFILLER_85_191 VPWR VGND VPWR VGND sky130_ef_sc_hd__decap_12
X_15651_ net265 VGND VGND VPWR VPWR _00213_ sky130_fd_sc_hd__inv_2
XFILLER_61_526 VGND VGND VPWR VPWR sky130_fd_sc_hd__fill_2
X_14602_ _06840_ _06841_ _06512_ VGND VGND VPWR VPWR _06842_ sky130_fd_sc_hd__o21ai_1
X_12863_ _05160_ _05161_ VGND VGND VPWR VPWR _05162_ sky130_fd_sc_hd__nor2_1
X_15582_ net273 VGND VGND VPWR VPWR _00144_ sky130_fd_sc_hd__inv_2
XFILLER_61_548 VGND VGND VPWR VPWR sky130_fd_sc_hd__fill_1
X_11814_ net128 net202 VGND VGND VPWR VPWR _04113_ sky130_fd_sc_hd__nand2_1
X_12794_ _04996_ _04992_ _04994_ VGND VGND VPWR VPWR _05093_ sky130_fd_sc_hd__nand3b_1
XTAP_TAPCELL_ROW_103_1546 VGND VPWR sky130_fd_sc_hd__tapvpwrvgnd_1
X_14533_ _06761_ _06551_ _06762_ VGND VGND VPWR VPWR _06773_ sky130_fd_sc_hd__nand3_1
X_11745_ _03855_ _03851_ VGND VGND VPWR VPWR _04044_ sky130_fd_sc_hd__nor2_1
XTAP_TAPCELL_ROW_16_459 VGND VPWR sky130_fd_sc_hd__tapvpwrvgnd_1
X_14464_ _06453_ _06492_ _06703_ VGND VGND VPWR VPWR _06704_ sky130_fd_sc_hd__o21a_1
XFILLER_41_272 VGND VGND VPWR VPWR sky130_fd_sc_hd__fill_1
XFILLER_14_475 VGND VGND VPWR VPWR sky130_fd_sc_hd__fill_1
X_13415_ _05713_ _02989_ VGND VGND VPWR VPWR _05714_ sky130_fd_sc_hd__or2_1
X_11676_ _03809_ VGND VGND VPWR VPWR _03975_ sky130_fd_sc_hd__inv_2
X_10627_ _02925_ _02922_ VGND VGND VPWR VPWR _02926_ sky130_fd_sc_hd__nand2_1
X_14395_ _06634_ _04881_ _06551_ VGND VGND VPWR VPWR _06635_ sky130_fd_sc_hd__mux2_1
XFILLER_10_681 VPWR VGND VPWR VGND sky130_ef_sc_hd__decap_12
X_16134_ clknet_leaf_13_clk _00091_ _00382_ VGND VGND VPWR VPWR mul_res\[27\] sky130_fd_sc_hd__dfrtp_1
X_10558_ _02826_ VGND VGND VPWR VPWR _02857_ sky130_fd_sc_hd__inv_2
X_13346_ _05644_ VGND VGND VPWR VPWR _05645_ sky130_fd_sc_hd__clkinvlp_2
X_16065_ clknet_leaf_11_clk adder_inst.is_inf_b _00313_ VGND VGND VPWR VPWR adder_inst.is_inf_b_r
+ sky130_fd_sc_hd__dfrtp_1
XFILLER_52_6 VGND VGND VPWR VPWR sky130_fd_sc_hd__decap_4
X_13277_ _05575_ VGND VGND VPWR VPWR _05576_ sky130_fd_sc_hd__inv_2
XFILLER_5_151 VGND VGND VPWR VPWR sky130_fd_sc_hd__fill_2
X_10489_ _02633_ _02787_ VGND VGND VPWR VPWR _02788_ sky130_fd_sc_hd__nand2_1
X_15016_ _07220_ _07260_ VGND VGND VPWR VPWR _07261_ sky130_fd_sc_hd__nand2_1
X_12228_ _04521_ _04524_ VGND VGND VPWR VPWR _04527_ sky130_fd_sc_hd__nand2_1
XTAP_TAPCELL_ROW_114_1686 VGND VPWR sky130_fd_sc_hd__tapvpwrvgnd_1
XFILLER_69_615 VGND VGND VPWR VPWR sky130_fd_sc_hd__fill_1
XFILLER_110_200 VGND VGND VPWR VPWR sky130_fd_sc_hd__fill_1
XFILLER_78_91 VGND VGND VPWR VPWR sky130_fd_sc_hd__decap_6
XFILLER_69_659 VGND VGND VPWR VPWR sky130_fd_sc_hd__fill_1
X_12159_ _01450_ VGND VGND VPWR VPWR _04458_ sky130_fd_sc_hd__inv_2
XFILLER_96_467 VGND VGND VPWR VPWR sky130_fd_sc_hd__decap_8
X_15918_ clknet_leaf_7_clk net51 _00166_ VGND VGND VPWR VPWR adder_inst.exp_b\[3\]
+ sky130_fd_sc_hd__dfrtp_1
XFILLER_77_670 VGND VGND VPWR VPWR sky130_fd_sc_hd__fill_2
XTAP_TAPCELL_ROW_69_1121 VGND VPWR sky130_fd_sc_hd__tapvpwrvgnd_1
XFILLER_92_640 VGND VGND VPWR VPWR sky130_fd_sc_hd__decap_4
X_15849_ net302 VGND VGND VPWR VPWR _00411_ sky130_fd_sc_hd__inv_2
XFILLER_64_375 VPWR VGND VPWR VGND sky130_ef_sc_hd__decap_12
X_09370_ _01668_ _01176_ VGND VGND VPWR VPWR _01669_ sky130_fd_sc_hd__or2_1
XFILLER_52_537 VGND VGND VPWR VPWR sky130_fd_sc_hd__fill_1
X_08321_ net117 net235 VGND VGND VPWR VPWR _00620_ sky130_fd_sc_hd__nand2_1
XFILLER_20_401 VGND VGND VPWR VPWR sky130_fd_sc_hd__decap_3
XFILLER_20_412 VGND VGND VPWR VPWR sky130_fd_sc_hd__decap_4
X_08252_ _00531_ _00533_ _00541_ VGND VGND VPWR VPWR _00551_ sky130_fd_sc_hd__nand3_1
XTAP_TAPCELL_ROW_43_790 VGND VPWR sky130_fd_sc_hd__tapvpwrvgnd_1
X_08183_ net201 net161 VGND VGND VPWR VPWR _00482_ sky130_fd_sc_hd__nand2_1
XFILLER_106_506 VGND VGND VPWR VPWR sky130_fd_sc_hd__decap_3
XFILLER_114_550 VGND VGND VPWR VPWR sky130_fd_sc_hd__fill_1
XFILLER_102_701 VGND VGND VPWR VPWR sky130_fd_sc_hd__decap_3
XFILLER_99_272 VGND VGND VPWR VPWR sky130_fd_sc_hd__decap_8
XFILLER_87_434 VPWR VGND VPWR VGND sky130_ef_sc_hd__decap_12
XFILLER_114_23 VGND VGND VPWR VPWR sky130_fd_sc_hd__fill_2
XFILLER_101_233 VGND VGND VPWR VPWR sky130_fd_sc_hd__fill_2
XFILLER_59_169 VPWR VGND VPWR VGND sky130_ef_sc_hd__decap_12
XFILLER_59_158 VGND VGND VPWR VPWR sky130_fd_sc_hd__fill_2
X_07967_ _07726_ _07735_ _07737_ VGND VGND VPWR VPWR _07738_ sky130_fd_sc_hd__o21ai_1
X_09706_ _01957_ _01998_ _01963_ VGND VGND VPWR VPWR _02005_ sky130_fd_sc_hd__a21boi_1
XFILLER_68_692 VGND VGND VPWR VPWR sky130_fd_sc_hd__decap_4
XFILLER_68_670 VGND VGND VPWR VPWR sky130_fd_sc_hd__fill_2
X_07898_ _07076_ _07128_ VGND VGND VPWR VPWR _07138_ sky130_fd_sc_hd__or2_1
XFILLER_74_49 VGND VGND VPWR VPWR sky130_fd_sc_hd__fill_1
XFILLER_28_567 VGND VGND VPWR VPWR sky130_fd_sc_hd__decap_8
X_09637_ net156 net228 VGND VGND VPWR VPWR _01936_ sky130_fd_sc_hd__nand2_1
XFILLER_83_673 VGND VGND VPWR VPWR sky130_fd_sc_hd__fill_1
XFILLER_82_161 VPWR VGND VPWR VGND sky130_ef_sc_hd__decap_12
XFILLER_55_364 VGND VGND VPWR VPWR sky130_fd_sc_hd__fill_1
XFILLER_28_589 VPWR VGND VPWR VGND sky130_ef_sc_hd__decap_12